Circuit: * C:\Electronics\STM32\Remote monitor\LTspice tests\ADC input circuit amplified .asc

Limiting rise time of source v2 to 1.9984e-016
Limiting fall time of source v2 to 1.9984e-016
Limiting rise time of source v1 to 2e-007
Limiting fall time of source v1 to 2e-007
Limiting rise time of source v6 to 1.9984e-016
Limiting fall time of source v6 to 1.9984e-016
Limiting rise time of source v5 to 2e-007
Limiting fall time of source v5 to 2e-007
Limiting rise time of source v3 to 1e-006
Limiting fall time of source v3 to 1e-006
WARNING: Less than two connections to node N002.  This node is used by V1.
Direct Newton iteration for .op point succeeded.
Ignoring empty pin current: Ix(u1:1)
Ignoring empty pin current: Ix(u1:2)
Ignoring empty pin current: Ix(u2:1)
Ignoring empty pin current: Ix(u2:2)
Ignoring empty pin current: Ix(u1:1)
Ignoring empty pin current: Ix(u1:2)
Ignoring empty pin current: Ix(u2:1)
Ignoring empty pin current: Ix(u2:2)
Heightened Def Con from 5e-007 to 5e-007

Date: Sat Feb 26 11:36:19 2022
Total elapsed time: 0.107 seconds.

tnom = 27
temp = 27
method = modified trap
totiter = 4345
traniter = 4316
tranpoints = 1701
accept = 1513
rejected = 189
matrix size = 34
fillins = 2
solver = Normal
Matrix Compiler1: 1.11 KB object code size  0.6/0.3/[0.2]
Matrix Compiler2: off  [0.2]/0.4/0.3

