Circuit: * C:\Electronics\STM32\Remote monitor\LTspice tests\ADC input circuit.asc

Limiting rise time of source v2 to 1.9984e-016
Limiting fall time of source v2 to 1.9984e-016
Limiting rise time of source v1 to 5e-008
Limiting fall time of source v1 to 5e-008
Limiting rise time of source v6 to 1.9984e-016
Limiting fall time of source v6 to 1.9984e-016
Limiting rise time of source v5 to 5e-008
Limiting fall time of source v5 to 5e-008
Limiting rise time of source v3 to 1e-006
Limiting fall time of source v3 to 1e-006
WARNING: Less than two connections to node N002.  This node is used by V1.
WARNING: Less than two connections to node N005.  This node is used by V8.
Direct Newton iteration for .op point succeeded.
Ignoring empty pin current: Ix(u1:1)
Ignoring empty pin current: Ix(u1:2)
Ignoring empty pin current: Ix(u1:1)
Ignoring empty pin current: Ix(u1:2)
Heightened Def Con from 5e-007 to 5e-007

Date: Wed Feb 23 22:22:17 2022
Total elapsed time: 0.415 seconds.

tnom = 27
temp = 27
method = modified trap
totiter = 11987
traniter = 11958
tranpoints = 4889
accept = 4265
rejected = 625
matrix size = 30
fillins = 7
solver = Normal
Matrix Compiler1: 1.27 KB object code size  0.4/0.2/[0.2]
Matrix Compiler2: off  [0.2]/0.4/0.3

