Circuit: * C:\Electronics\STM32\Remote monitor\LTspice tests\ADC input circuit amplified2 .asc

Limiting rise time of source v4 to 5e-007
Limiting fall time of source v4 to 5e-007
Limiting rise time of source v10 to 1.9984e-016
Limiting fall time of source v10 to 1.9984e-016
Limiting rise time of source v8 to 1e-007
Limiting fall time of source v8 to 1e-007
Limiting rise time of source v2 to 1.9984e-016
Limiting fall time of source v2 to 1.9984e-016
Limiting rise time of source v1 to 5e-007
Limiting fall time of source v1 to 5e-007
Limiting rise time of source v6 to 1.9984e-016
Limiting fall time of source v6 to 1.9984e-016
Limiting rise time of source v5 to 5e-007
Limiting fall time of source v5 to 5e-007
WARNING: Node N027 is floating.

WARNING: Less than two connections to node NC_01.  This node is used by V1.
WARNING: Less than two connections to node N027.  This node is used by Q4.
WARNING: Less than two connections to node NC_02.  This node is used by Q6.
Direct Newton iteration failed to find .op point.  (Use ".option noopiter" to skip.)
Starting Gmin stepping
Gmin = 10
Gmin = 1.07374
vernier = 0.5
vernier = 0.25
vernier = 0.125
Gmin = 0.921465
vernier = 0.166667
vernier = 0.222222
Gmin = 0.608718
vernier = 0.296296
Gmin = 0.319365
vernier = 0.395061
vernier = 0.526748
Gmin = 0.11065
vernier = 0.702331
vernier = 0.936441
Gmin = 0.0214918
vernier = 1
Gmin = 0.00242882
Gmin = 0.000260793
Gmin = 2.80024e-005
vernier = 0.5
vernier = 0.25
vernier = 0.125
vernier = 0.0625
Gmin = 2.67361e-005
vernier = 0.03125
vernier = 0.015625
vernier = 0.0078125
vernier = 0.00390625
Gmin = 2.65802e-005
vernier = 0.00195313
vernier = 0.000976563
vernier = 0.000488281
Gmin = 2.65316e-005
Gmin = 0
Gmin stepping failed

Starting source stepping with srcstepmethod=0
Source Step = 3.0303%
vernier = 0.25
Source Step = 7.57576%
Source Step = 15.1515%
Source Step = 22.7273%
Source Step = 30.303%
Source Step = 37.8788%
vernier = 0.375
Source Step = 48.8636%
Source Step = 60.2273%
Source Step = 71.5909%
Source Step = 82.9545%
Source Step = 94.3182%
vernier = 0.5625
Source stepping succeeded in finding the operating point.

Heightened Def Con from 4e-018 to 2.848e-017

Date: Tue Mar 08 21:47:53 2022
Total elapsed time: 2.194 seconds.

tnom = 27
temp = 27
method = modified trap
totiter = 44572
traniter = 41672
tranpoints = 15017
accept = 13597
rejected = 1421
matrix size = 133
fillins = 127
solver = Normal
Thread vector: 20.0/11.8[3] 9.1/6.8[3] 6.1/4.4[3] 0.9/1.9[1]  2592/500
Matrix Compiler1: 11.87 KB object code size  8.0/8.2/[1.5]
Matrix Compiler2: 11.95 KB object code size  3.1/4.5/[1.2]

