Circuit: * C:\Electronics\STM32\Remote monitor\LTspice tests\Switch output tests.asc

Limiting rise time of source v4 to 1e-008
Limiting fall time of source v4 to 1e-008
Limiting rise time of source v1 to 5e-006
Limiting fall time of source v1 to 5e-006
Limiting rise time of source v10 to 1.9984e-016
Limiting fall time of source v10 to 1.9984e-016
Limiting rise time of source v8 to 1e-007
Limiting fall time of source v8 to 1e-007
WARNING: Node NC_03 is floating.

WARNING: Less than two connections to node NC_01.  This node is used by Q4.
WARNING: Less than two connections to node NC_02.  This node is used by Q4.
WARNING: Less than two connections to node NC_03.  This node is used by Q4.
.OP point found by inspection.

Date: Thu Mar 17 21:35:11 2022
Total elapsed time: 1.719 seconds.

tnom = 27
temp = 27
method = modified trap
totiter = 143290
traniter = 143290
tranpoints = 58310
accept = 52293
rejected = 6017
matrix size = 34
fillins = 0
solver = Normal
Matrix Compiler1: 1.43 KB object code size  0.7/0.4/[0.3]
Matrix Compiler2: 2.29 KB object code size  0.3/0.7/[0.2]

